147
Cpptraj
C     16.64300   14.62300   33.94500  0.305
H     15.65100   14.14800   33.81600  0.091
O     16.51700   16.05500   34.24800 -0.453
C     17.35000   13.93600   35.11000  0.092
H     17.40100   12.85900   34.92500  0.103
O     16.62900   14.18200   36.32900 -0.587
H     16.02800   14.93700   36.21300  0.425
C     18.74400   14.49700   35.29900  0.093
H     18.67800   15.54900   35.59400  0.064
O     19.36600   13.71600   36.33200 -0.593
H     18.67500   13.52800   36.98200  0.421
C     19.54300   14.36300   34.01200  0.128
H     19.70100   13.30200   33.80000  0.081
C     18.81300   15.02000   32.83100  0.104
H     18.70800   16.08500   33.05300  0.069
O     17.44900   14.43900   32.72300 -0.427
C     19.50100   14.93600   31.46100  0.141
H     20.16300   15.79500   31.32900  0.057
H     18.75400   14.95900   30.66400  0.057
O     20.28000   13.73800   31.35500 -0.594
H     21.17100   13.92800   31.67700  0.422
C     13.56800   19.02000   33.94600  0.305
H     12.57700   19.49900   33.81800  0.091
O     14.60900   20.01100   34.24900 -0.453
C     13.47100   18.03800   35.11100  0.092
H     12.66100   17.32700   34.92600  0.103
O     13.21600   18.75500   36.32900 -0.587
H     13.43100   19.69500   36.21400  0.425
C     14.78100   17.29900   35.29800  0.093
H     15.56200   18.00500   35.59400  0.064
O     14.55700   16.32600   36.33100 -0.593
H     13.97900   16.74800   36.98300  0.421
C     15.17300   16.59000   34.01300  0.128
H     14.44200   15.80600   33.80000  0.081
C     15.23100   17.57100   32.83100  0.104
H     15.99800   18.31600   33.05400  0.069
O     13.92600   18.27600   32.72300 -0.427
C     15.59400   16.98100   31.46100  0.141
H     16.67800   16.99900   31.32800  0.057
H     15.14600   17.57900   30.66400  0.057
O     15.14200   15.62500   31.35500 -0.594
H     15.84700   15.04700   31.67700  0.422
C     15.08800   24.16600   33.94700  0.305
H     14.84600   25.23900   33.81800  0.091
O     16.51200   23.96900   34.24900 -0.453
C     14.26200   23.62900   35.11100  0.092
H     13.20000   23.81800   34.92700  0.103
O     14.66300   24.27600   36.33000 -0.587
H     15.53100   24.69400   36.21400  0.425
C     14.50000   22.14400   35.29900  0.093
H     15.53900   21.97400   35.59400  0.064
O     13.60000   21.71200   36.33200 -0.593
H     13.57000   22.42800   36.98400  0.421
C     14.18900   21.39600   34.01300  0.128
H     13.12000   21.47900   33.80200  0.081
C     14.99200   21.96200   32.83200  0.104
H     16.05300   21.82700   33.05400  0.069
O     14.72900   23.42200   32.72400 -0.427
C     14.75700   21.31000   31.46200  0.141
H     15.44600   20.47300   31.32900  0.057
H     14.94400   22.03400   30.66400  0.057
O     13.41400   20.81700   31.35600 -0.594
H     13.40200   19.90600   31.67700  0.422
C     20.06000   26.18500   33.94500  0.305
H     20.74700   27.04400   33.81700  0.091
O     20.79300   24.94900   34.24800 -0.453
C     19.12400   26.49700   35.11000  0.092
H     18.61100   27.44500   34.92500  0.103
O     19.88100   26.58700   36.32900 -0.587
H     20.75000   26.16900   36.21300  0.425
C     18.11300   25.38600   35.29800  0.093
H     18.62700   24.46700   35.59400  0.064
O     17.21300   25.82000   36.33100 -0.593
H     17.75400   26.28900   36.98200  0.421
C     17.33300   25.16000   34.01300  0.128
H     16.73200   26.04800   33.80100  0.081
C     18.27600   24.88500   32.83200  0.104
H     18.83200   23.97200   33.05400  0.069
O     19.25400   26.00100   32.72300 -0.427
C     17.62000   24.66300   31.46100  0.141
H     17.39500   23.60100   31.32900  0.057
H     18.30300   24.96600   30.66400  0.057
O     16.39800   25.40400   31.35600 -0.594
H     15.67700   24.84700   31.67800  0.422
C     24.73800   23.55800   33.94500  0.305
H     25.83800   23.55600   33.81500  0.091
O     24.22900   22.21400   34.24800 -0.453
C     24.39900   24.48400   35.10900  0.092
H     24.82000   25.47600   34.92400  0.103
O     24.94000   23.94900   36.32800 -0.587
H     25.15500   23.00900   36.21300  0.425
C     22.89900   24.58200   35.29800  0.093
H     22.50100   23.60700   35.59300  0.064
O     22.67700   25.55600   36.33100 -0.593
H     23.38100   25.42600   36.98200  0.421
C     22.23700   25.05100   34.01200  0.128
H     22.55600   26.07400   33.79900  0.081
C     22.60900   24.14100   32.83100  0.104
H     22.24300   23.13700   33.05400  0.069
O     24.09200   24.07300   32.72200 -0.427
C     22.02600   24.51500   31.46000  0.141
H     21.05700   24.02900   31.32800  0.057
H     22.68900   24.17000   30.66300  0.057
O     21.84500   25.93300   31.35400 -0.594
H     20.95900   26.14800   31.67700  0.422
C     25.60000   18.26200   33.94600  0.305
H     26.28500   17.40000   33.81800  0.091
O     24.23200   17.82100   34.24900 -0.453
C     26.11300   19.10500   35.11100  0.092
H     27.15100   19.39400   34.92600  0.103
O     26.03200   18.34800   36.32900 -0.587
H     25.43100   17.59400   36.21400  0.425
C     25.25400   20.33800   35.29900  0.093
H     24.24400   20.04000   35.59400  0.064
O     25.87700   21.11900   36.33200 -0.593
H     26.21500   20.48700   36.98300  0.421
C     25.20900   21.14700   34.01200  0.128
H     26.20700   21.53700   33.80000  0.081
C     24.73000   20.28900   32.83200  0.104
H     23.71700   19.95000   33.05300  0.069
O     25.60100   19.08700   32.72300 -0.427
C     24.66000   20.97800   31.46100  0.141
H     23.67600   21.43200   31.32900  0.057
H     24.80400   20.24400   30.66400  0.057
O     25.65500   22.00400   31.35500 -0.594
H     25.27100   22.83100   31.67600  0.422
C     21.99700   14.28500   33.94600  0.305
H     21.75000   13.21300   33.81800  0.091
O     20.80100   15.08100   34.24900 -0.453
C     22.97600   14.41000   35.11100  0.092
H     23.84900   13.77900   34.92600  0.103
O     22.33300   14.00200   36.32900 -0.587
H     21.36900   14.00100   36.21400  0.425
C     23.40500   15.85000   35.29900  0.093
H     22.54300   16.45500   35.59400  0.064
O     24.40300   15.85000   36.33300 -0.593
H     24.12000   15.19300   36.98300  0.421
C     24.01000   16.39100   34.01300  0.128
H     24.93700   15.85300   33.80100  0.081
C     23.04000   16.23000   32.83100  0.104
H     22.14300   16.81200   33.05400  0.069
O     22.64400   14.80100   32.72400 -0.427
C     23.53500   16.71500   31.46100  0.141
H     23.27700   17.76800   31.32800  0.057
H     23.05200   16.14500   30.66400  0.057
O     24.95900   16.57600   31.35600 -0.594
H     25.36500   17.39100   31.67800  0.422
